{
    "network":{
        "caseid":{
            "fields":["ic", "sbase", "rev", "xfrrat", "nxfrat", "basfrq", "title1", "title2"], 
            "data":[0, 100.00, 35, 0, 1, 60.00, "PSS(R)E SAMPLE CASE", "ALL DATA CATEGORIES WITH SEQUENCE DATA"]
        }, 
        "general":{
            "fields":["thrshz", "pqbrak", "blowup", "maxisollvls", "camaxreptsln", "chkdupcntlbl"], 
            "data":[0.0001, 0.7, 5.0, 4, 20, 0]
        }, 
        "gauss":{
            "fields":["itmx", "accp", "accq", "accm", "tol"], 
            "data":[100, 1.6, 1.6, 1.0, 0.0001]
        }, 
        "newton":{
            "fields":["itmxn", "accn", "toln", "vctolq", "vctolv", "dvlim", "ndvfct"], 
            "data":[100, 1.0, 0.1, 0.1, 0.00001, 0.99, 0.99]
        }, 
        "adjust":{
            "fields":["adjthr", "acctap", "taplim", "swvbnd", "mxtpss", "mxswim"], 
            "data":[0.005, 1.0, 0.05, 100.0, 99, 10]
        }, 
        "tysl":{
            "fields":["itmxty", "accty", "tolty"], 
            "data":[20, 1.0, 0.00001]
        }, 
        "solver":{
            "fields":["method", "actaps", "areain", "phshft", "dctaps", "swshnt", "flatst", "varlim", "nondiv"], 
            "data":["FDNS", 0, 0, 0, 1, 1, 0, 99, 0]
        }, 
        "rating":{
            "fields":["irate", "name", "desc"], 
            "data":[
                [1, "CRCUS1", "Circus-Fibrous or threadlike    "], 
                [2, "CRSTR2", "Cirrostrarus-Milky, translucent "], 
                [3, "CRCUM3", "Cirrocumulus-small, white flakes"], 
                [4, "ALTCU4", "Altocumulus-bundles or rollers  "], 
                [5, "ALTST5", "Altostratus-dense, gray layer   "], 
                [6, "STRTO6", "Stratocumulus-plaices or rollers"], 
                [7, "STRTS7", "Stratus-Evenly grey, low layer  "], 
                [8, "CMULS8", "Cumulus-Heap with flat basis    "], 
                [9, "CMULO9", "Cumulonimbus-thunder, up-rises  "], 
                [10, "NIBS10", "Nimbostratus-rain,grey, dark    "], 
                [11, "CPLL11", "capillatus-haired, frayed       "], 
                [12, "NBUL12", "nebulosus-fog, veil-like        "]
            ]
        }, 
        "bus":{
            "fields":["ibus", "name", "baskv", "ide", "area", "zone", "owner", "vm", "va", "nvhi", "nvlo", "evhi", "evlo"], 
            "data":[
                [101, "NUC-A       ", 21.6000, 2, 1, 1, 1, 1.01000, -19.0142, 1.10000, 0.90000, 1.10000, 0.90000], 
                [102, "NUC-B       ", 21.6000, 2, 1, 1, 1, 1.01000, -19.3678, 1.10000, 0.90000, 1.10000, 0.90000], 
                [151, "NUCPLNT     ", 500.0000, 1, 1, 1, 1, 0.99923, -22.1613, 1.10000, 0.90000, 1.10000, 0.90000], 
                [152, "MID500      ", 500.0000, 1, 1, 2, 1, 1.04393, -29.7672, 1.10000, 0.90000, 1.10000, 0.90000], 
                [153, "MID230      ", 230.0000, 1, 1, 3, 1, 1.05708, -31.4386, 1.10000, 0.90000, 1.10000, 0.90000], 
                [154, "DOWNTN      ", 230.0000, 1, 1, 3, 1, 0.99311, -36.8635, 1.10000, 0.90000, 1.10000, 0.90000], 
                [155, "FACTS TE    ", 230.0000, 1, 1, 4, 1, 1.01848, -28.0346, 1.10000, 0.90000, 1.10000, 0.90000], 
                [201, "HYDRO       ", 500.0000, 1, 2, 7, 2, 0.99923, -22.1613, 1.10000, 0.90000, 1.10000, 0.90000], 
                [202, "EAST500     ", 500.0000, 1, 2, 2, 2, 1.02225, -30.9424, 1.10000, 0.90000, 1.10000, 0.90000], 
                [203, "EAST230     ", 230.0000, 1, 2, 8, 2, 1.00000, -34.1478, 1.10000, 0.90000, 1.10000, 0.90000], 
                [204, "SUB500      ", 500.0000, 1, 2, 8, 2, 1.03093, -34.9445, 1.10000, 0.90000, 1.10000, 0.90000], 
                [205, "SUB230      ", 230.0000, 1, 2, 8, 2, 1.00000, -37.3467, 1.10000, 0.90000, 1.10000, 0.90000], 
                [206, "URBGEN      ", 18.0000, 2, 2, 8, 2, 1.00000, -34.8918, 1.10000, 0.90000, 1.10000, 0.90000], 
                [207, "DUPONT      ", 500.0000, 1, 2, 7, 2, 1.01832, -28.7073, 1.10000, 0.90000, 1.10000, 0.90000], 
                [208, "URBANEAST208", 230.0000, 4, 2, 8, 2, 1.00000, -31.5246, 1.10000, 0.90000, 1.10000, 0.90000], 
                [209, "URBANEAST209", 230.0000, 4, 2, 8, 2, 1.00000, -31.5246, 1.10000, 0.90000, 1.10000, 0.90000], 
                [211, "HYDRO_G     ", 20.0000, 2, 2, 7, 2, 1.00000, -17.5386, 1.10000, 0.90000, 1.10000, 0.90000], 
                [212, "INVERT1     ", 230.0000, 1, 2, 7, 2, 1.02695, -35.7231, 1.10000, 0.90000, 1.10000, 0.90000], 
                [213, "INVERT2     ", 230.0000, 1, 2, 7, 2, 1.10677, -38.9888, 1.10000, 0.90000, 1.10000, 0.90000], 
                [214, "LOADER      ", 230.0000, 1, 2, 7, 2, 1.07726, -40.4186, 1.10000, 0.90000, 1.10000, 0.90000], 
                [215, "URBANEAST215", 18.0000, 1, 2, 8, 2, 0.91817, -37.2809, 1.10000, 0.90000, 1.10000, 0.90000], 
                [216, "URBANEAST216", 230.0000, 1, 2, 8, 2, 0.99637, -37.3236, 1.10000, 0.90000, 1.10000, 0.90000], 
                [217, "URBANEAST217", 230.0000, 1, 2, 8, 2, 0.99733, -37.3298, 1.10000, 0.90000, 1.10000, 0.90000], 
                [218, "URBANEAST218", 230.0000, 1, 2, 8, 2, 0.99769, -37.3320, 1.10000, 0.90000, 1.10000, 0.90000], 
                [301, "NORTH       ", 765.0000, 3, 3, 5, 3, 1.00000, 0.0000, 1.10000, 0.90000, 1.10000, 0.90000], 
                [401, "COGEN-1     ", 500.0000, 3, 4, 9, 4, 1.00000, 0.0000, 1.10000, 0.90000, 1.10000, 0.90000], 
                [402, "COGEN-2     ", 500.0000, 3, 6, 9, 4, 1.00000, 0.0000, 1.10000, 0.90000, 1.10000, 0.90000], 
                [3001, "MINE        ", 230.0000, 1, 5, 6, 5, 0.98441, -11.9797, 1.10000, 0.90000, 1.10000, 0.90000], 
                [3002, "E. MINE     ", 500.0000, 1, 5, 6, 5, 0.98662, -10.5569, 1.10000, 0.90000, 1.10000, 0.90000], 
                [3003, "S. MINE     ", 230.0000, 1, 5, 6, 5, 0.98742, -15.2068, 1.10000, 0.90000, 1.10000, 0.90000], 
                [3004, "WEST        ", 500.0000, 1, 5, 6, 5, 1.00898, -25.1440, 1.10000, 0.90000, 1.10000, 0.90000], 
                [3005, "WEST        ", 230.0000, 1, 5, 2, 5, 0.99761, -26.0972, 1.10000, 0.90000, 1.10000, 0.90000], 
                [3006, "UPTOWN      ", 230.0000, 1, 5, 4, 5, 1.05708, -31.4386, 1.10000, 0.90000, 1.10000, 0.90000], 
                [3007, "RURAL       ", 230.0000, 1, 5, 4, 5, 0.98103, -29.4773, 1.10000, 0.90000, 1.10000, 0.90000], 
                [3008, "CATDOG      ", 230.0000, 1, 5, 4, 5, 0.99000, -30.0543, 1.10000, 0.90000, 1.10000, 0.90000], 
                [3009, "URBNWEST3009", 230.0000, 1, 5, 4, 5, 0.99048, -30.0739, 1.10000, 0.90000, 1.10000, 0.90000], 
                [3010, "INDMOTOR1   ", 21.6000, 1, 5, 4, 5, 0.96390, -3.3103, 1.10000, 0.90000, 1.10000, 0.90000], 
                [3011, "MINE_G      ", 19.4000, 3, 5, 6, 5, 1.00000, 0.0000, 1.10000, 0.90000, 1.10000, 0.90000], 
                [3012, "URBNWEST3012", 230.0000, 4, 5, 4, 5, 0.99048, 0.0000, 1.10000, 0.90000, 1.10000, 0.90000], 
                [3018, "CATDOG_G    ", 13.8000, 2, 5, 4, 5, 0.99000, -26.2844, 1.10000, 0.90000, 1.10000, 0.90000], 
                [3021, "WDUM        ", 18.0000, 1, 3, 5, 3, 1.00000, -26.2761, 1.10000, 0.90000, 1.10000, 0.90000], 
                [3022, "EDUM        ", 18.0000, 1, 3, 5, 3, 1.00000, -25.5871, 1.10000, 0.90000, 1.10000, 0.90000], 
                [9154, "INDGEN1     ", 4.1600, 1, 1, 3, 1, 0.98605, -36.1817, 1.10000, 0.90000, 1.10000, 0.90000], 
                [9204, "INDMOTOR2   ", 0.5750, 1, 2, 8, 2, 0.98149, -38.6306, 1.10000, 0.90000, 1.10000, 0.90000], 
                [93002, "INDGEN2     ", 0.6900, 1, 5, 6, 5, 0.94820, -4.3678, 1.10000, 0.90000, 1.10000, 0.90000]
            ]
        }, 
        "load":{
            "fields":["ibus", "loadid", "stat", "area", "zone", "pl", "ql", "ip", "iq", "yp", "yq", "owner", "scale", "intrpt", "dgenp", "dgenq", "dgenm", "loadtype"], 
            "data":[
                [152, "1 ", 1, 1, 1, 1200.000, 360.000, 868.340, 360.502, 837.794, -351.338, 1, 1, 0, 0.000, 0.000, 0, "            "], 
                [153, "1 ", 1, 1, 1, 300.000, 150.000, 0.000, 0.000, 0.000, 0.000, 1, 1, 0, 100.000, 50.000, 1, "            "], 
                [154, "1 ", 1, 1, 1, 400.000, 200.000, 0.000, 0.000, 0.000, 0.000, 1, 1, 0, 30.000, 15.000, 1, "            "], 
                [154, "2 ", 1, 1, 1, 250.000, 200.000, 0.000, 0.000, 0.000, 0.000, 1, 1, 0, 20.000, 8.000, 1, "            "], 
                [154, "3 ", 1, 1, 1, 250.000, 100.000, 0.000, 0.000, 0.000, 0.000, 1, 1, 0, 7.500, 2.750, 1, "            "], 
                [154, "MO", 1, 1, 1, 100.000, 80.000, 0.000, 0.000, 0.000, 0.000, 1, 1, 0, 0.000, 0.000, 0, "            "], 
                [201, "SC", 1, 2, 7, 0.000, 0.000, 0.000, 0.000, 0.000, 0.000, 2, 1, 0, 0.000, 0.000, 0, "            "], 
                [203, "1 ", 1, 2, 2, 500.000, 250.000, 0.000, 0.000, 0.000, 0.000, 2, 1, 0, 0.000, 0.000, 0, "            "], 
                [205, "1 ", 1, 2, 2, 1800.000, 600.000, 0.000, 0.000, 0.000, 0.000, 2, 1, 0, 75.860, 46.786, 0, "            "], 
                [205, "B ", 1, 2, 2, 90.000, 5.000, 110.000, 25.000, 20.000, 10.000, 2, 1, 0, 65.123, 20.456, 1, "            "], 
                [205, "C ", 1, 2, 2, 60.000, 15.000, 45.000, 5.000, 35.000, 30.000, 2, 1, 0, 37.000, 13.000, 1, "            "], 
                [214, "1 ", 1, 2, 2, 500.000, 75.000, 0.000, 0.000, 0.000, 0.000, 2, 1, 0, 0.000, 0.000, 0, "            "], 
                [215, "U1", 1, 2, 4, 0.000, 140.000, 0.000, 0.000, 0.000, 0.000, 2, 1, 0, 0.000, 0.000, 0, "            "], 
                [216, "U1", 1, 2, 4, 0.000, 12.000, 0.000, 0.000, 0.000, 0.000, 2, 1, 0, 0.000, 0.000, 0, "            "], 
                [217, "U1", 1, 2, 4, 0.000, 10.000, 0.000, 0.000, 0.000, 0.000, 2, 1, 0, 0.000, 0.000, 0, "            "], 
                [218, "U1", 1, 2, 4, 0.000, 9.000, 0.000, 0.000, 0.000, 0.000, 2, 1, 0, 0.000, 0.000, 0, "            "], 
                [3005, "1 ", 1, 5, 5, 100.000, 50.000, 0.000, 0.000, 0.000, 0.000, 5, 1, 0, 0.000, 0.000, 0, "            "], 
                [3007, "1 ", 1, 5, 5, 200.000, 75.000, 0.000, 0.000, 0.000, 0.000, 5, 1, 0, 0.000, 0.000, 0, "            "], 
                [3008, "1 ", 1, 5, 5, 200.000, 75.000, 0.000, 0.000, 0.000, 0.000, 5, 1, 0, 0.000, 0.000, 0, "            "], 
                [3009, "1 ", 1, 5, 4, 1.100, 0.900, 0.000, 0.000, 0.000, 0.000, 5, 1, 0, 0.000, 0.000, 0, "            "], 
                [3010, "1 ", 1, 5, 4, 12.000, 5.000, 0.000, 0.000, 0.000, 0.000, 5, 1, 0, 0.000, 0.000, 0, "            "]
            ]
        }, 
        "fixshunt":{
            "fields":["ibus", "shntid", "stat", "gl", "bl"], 
            "data":[
                [151, "F1", 1, 5.000, -400.000], 
                [151, "F2", 1, 3.000, -400.000], 
                [151, "F3", 1, 3.120, 200.000], 
                [152, "1 ", 1, 1.630, 50.000], 
                [154, "1 ", 1, 2.450, 200.000], 
                [201, "1 ", 1, 3.670, -500.000], 
                [203, "1 ", 1, -5.000, 30.000], 
                [203, "2 ", 1, 5.000, 20.000], 
                [205, "1 ", 1, 2.780, 300.000], 
                [212, "1 ", 1, 5.130, 400.000], 
                [213, "1 ", 1, 5.140, 400.000], 
                [3021, "1 ", 1, 0.000, 1320.000], 
                [3022, "1 ", 1, 0.000, 1080.000]
            ]
        }, 
        "generator":{
            "fields":["ibus", "machid", "pg", "qg", "qt", "qb", "vs", "ireg", "nreg", "mbase", "zr", "zx", "rt", "xt", "gtap", "stat", "rmpct", "pt", "pb", "baslod", "o1", "f1", "o2", "f2", "o3", "f3", "o4", "f4", "wmod", "wpf"], 
            "data":[
                [101, "1 ", 750.000, 165.206, 400.000, -100.000, 1.01000, 101, 0, 900.000, 1.00000E-2, 3.00000E-1, 0.00000E+0, 0.00000E+0, 1.00000, 1, 100.0, 800.000, 50.000, 0, 1, 0.1289, 2, 0.2524, 3, 0.1031, 4, 0.5156, null, null], 
                [102, "1 ", 650.000, 151.879, 410.000, -110.000, 1.01000, 102, 0, 950.000, 1.05000E-2, 3.20000E-1, 0.00000E+0, 0.00000E+0, 1.00000, 1, 100.0, 700.000, 33.000, 0, 1, 0.3647, 2, 0.1838, 3, 0.0751, 4, 0.3764, null, null], 
                [206, "1 ", 800.000, 283.913, 500.000, -400.000, 1.00000, 206, 0, 1000.000, 1.06000E-2, 2.51000E-1, 0.00000E+0, 0.00000E+0, 1.00000, 1, 100.0, 850.000, 50.000, 0, 1, 0.1034, 2, 0.4006, 3, 0.0825, 4, 0.4135, null, null], 
                [211, "1 ", 600.000, 18.350, 510.000, -100.000, 1.00000, 211, 0, 725.000, 1.08000E-2, 2.62000E-1, 0.00000E+0, 0.00000E+0, 1.00000, 1, 100.0, 616.000, 30.000, 0, 1, 0.1423, 2, 0.2210, 3, 0.1842, 4, 0.4525, null, null], 
                [301, "1 ", 996.884, 299.541, 700.000, -650.000, 1.00000, 301, 0, 1067.000, 1.09000E-2, 2.30000E-1, 1.40000E-2, 1.26000E-1, 1.02500, 1, 98.0, 1010.000, 320.000, 0, 1, 0.1118, 2, 0.2184, 3, 0.0893, 4, 0.5805, null, null], 
                [301, "2 ", 996.884, 299.541, 710.000, -600.000, 1.00000, 301, 0, 1070.000, 1.10000E-2, 2.40000E-1, 1.10000E-2, 1.27000E-1, 1.02600, 1, 98.0, 1011.000, 321.000, 0, 1, 0.1173, 2, 0.3200, 3, 0.0936, 4, 0.4691, null, null], 
                [301, "3 ", 996.884, 299.541, 720.000, -600.000, 1.00000, 301, 0, 1075.000, 8.00000E-3, 2.50000E-1, 1.20000E-2, 1.28000E-1, 1.02700, 1, 98.0, 1012.000, 322.000, 0, 1, 0.1260, 2, 0.2268, 3, 0.1827, 4, 0.4644, null, null], 
                [401, "1 ", 321.000, 142.325, 600.000, -100.000, 1.00000, 401, 0, 600.000, 1.23000E-2, 2.22300E-1, 0.00000E+0, 0.00000E+0, 1.00000, 1, 90.0, 350.000, 25.000, 0, 1, 0.1625, 2, 0.2423, 3, 0.0990, 4, 0.4962, null, null], 
                [402, "1 ", 321.000, 142.325, 610.000, -110.000, 1.00000, 402, 0, 610.000, 4.50000E-3, 2.43200E-1, 0.00000E+0, 0.00000E+0, 1.00000, 1, 91.0, 351.000, 26.000, 0, 1, 0.1588, 2, 0.2117, 3, 0.1959, 4, 0.4335, null, null], 
                [3011, "1 ", 1143.185, 176.798, 620.000, -120.000, 1.00000, 3011, 0, 1050.000, 7.60000E-3, 3.54300E-1, 0.00000E+0, 0.00000E+0, 1.00000, 1, 92.0, 1400.000, 100.000, 0, 1, 0.1452, 2, 0.1926, 3, 0.2677, 4, 0.3945, null, null], 
                [3018, "1 ", 400.000, -0.628, 300.000, -150.000, 0.99000, 3018, 0, 530.000, 8.70000E-2, 3.56300E-1, 0.00000E+0, 0.00000E+0, 1.00000, 1, 92.5, 500.000, 50.000, 0, 1, 0.1043, 2, 0.2037, 3, 0.2749, 4, 0.4171, null, null], 
                [3018, "2 ", 100.000, -0.157, 75.000, -75.000, 0.99000, 3018, 0, 120.000, 2.40000E-2, 3.55300E-1, 0.00000E+0, 0.00000E+0, 1.00000, 1, 92.5, 110.000, 20.000, 0, 1, 0.3003, 2, 0.1358, 3, 0.2857, 4, 0.2782, null, null]
            ]
        }, 
        "acline":{
            "fields":["ibus", "jbus", "ckt", "rpu", "xpu", "bpu", "name", "rate1", "rate2", "rate3", "rate4", "rate5", "rate6", "rate7", "rate8", "rate9", "rate10", "rate11", "rate12", "gi", "bi", "gj", "bj", "stat", "met", "len", "o1", "f1", "o2", "f2", "o3", "f3", "o4", "f4"], 
            "data":[
                [151, 152, "1 ", 2.60000E-03, 4.60000E-02, 3.50000, "BRANCH_FROM__151_TO__152___CIRCUIT_ID__1", 1200.00, 1100.00, 1000.00, 1200.40, 1100.50, 1000.60, 1200.70, 1100.80, 1000.90, 1200.10, 1100.11, 1000.12, 0.01000, -0.25000, 0.01100, -0.15000, 1, 2, 150.00, 1, 0.2000, 2, 0.3000, 3, 0.4000, 4, 0.1000], 
                [151, 152, "2 ", 2.61000E-03, 4.61000E-02, 3.51000, "BRANCH_FROM__151_TO__152___CIRCUIT_ID__2", 1205.00, 1105.00, 1005.00, 1205.40, 1105.50, 1005.60, 1205.70, 1105.80, 1005.90, 1205.10, 1105.11, 1005.12, 0.01300, -0.25100, 0.01200, -0.02000, 1, 2, 149.00, 5, 0.2315, 1, 0.3056, 2, 0.3704, 3, 0.0926], 
                [152, 202, "1 ", 8.00000E-04, 1.00000E-02, 0.95000, "BRANCH_FROM__152_TO__202___CIRCUIT_ID__1", 1207.00, 1107.00, 1007.00, 0.00, 0.00, 0.00, 0.00, 0.00, 0.00, 0.00, 0.00, 0.00, 0.00000, 0.00000, 0.00000, 0.00000, 1, 1, 200.00, 1, 0.3939, 2, 0.2273, 3, 0.3030, 4, 0.0758], 
                [152, 3004, "1 ", 3.00000E-03, 3.00000E-02, 2.50000, "BRANCH_FROM__152_TO_3004___CIRCUIT_ID__1", 0.00, 0.00, 0.00, 0.00, 0.00, 0.00, 0.00, 0.00, 0.00, 0.00, 0.00, 0.00, 0.00000, 0.00000, 0.00000, 0.00000, 1, 2, 201.00, 5, 0.2379, 1, 0.3033, 2, 0.3667, 3, 0.0922], 
                [153, 154, "2 ", 6.00000E-03, 5.40000E-02, 0.15000, "BRANCH_FROM__153_TO__154___CIRCUIT_ID__2", 350.00, 0.00, 0.00, 0.00, 0.00, 0.00, 0.00, 0.00, 0.00, 0.00, 0.00, 0.00, 0.00000, 0.00000, 0.00000, 0.00000, 1, 2, 80.00, 2, 0.2727, 3, 0.2727, 4, 0.3636, 5, 0.0909], 
                [154, 155, "1 ", 5.00000E-03, 4.50000E-02, 0.10000, "BRANCH_FROM__154_TO__155___CIRCUIT_ID__1", 400.00, 0.00, 0.00, 0.00, 0.00, 0.00, 0.00, 0.00, 0.00, 0.00, 0.00, 0.00, 0.00000, 0.00000, 0.00000, 0.00000, 1, 1, 81.00, 5, 0.1914, 1, 0.2535, 2, 0.3065, 3, 0.2486], 
                [154, 203, "1 ", 4.00000E-03, 4.00000E-02, 0.10000, "BRANCH_FROM__154_TO__203___CIRCUIT_ID__1", 400.00, 0.00, 0.00, 0.00, 0.00, 0.00, 0.00, 0.00, 0.00, 0.00, 0.00, 0.00, 0.00000, 0.00000, 0.00000, 0.00000, 1, 2, 100.00, 2, 0.2000, 3, 0.3000, 4, 0.4000, 5, 0.1000], 
                [154, 205, "1 ", 3.30000E-04, 3.33000E-03, 0.09000, "BRANCH_FROM__154_TO__205___CIRCUIT_ID__1", 600.00, 0.00, 0.00, 0.00, 0.00, 0.00, 0.00, 0.00, 0.00, 0.00, 0.00, 0.00, 0.00000, 0.00000, 0.00000, 0.00000, 1, 2, 120.00, 1, 0.1667, 2, 0.2500, 3, 0.3333, 4, 0.2500], 
                [154, 3008, "1 ", 2.70000E-03, 2.20000E-02, 0.30000, "BRANCH_FROM__154_TO_3008___CIRCUIT_ID__1", 800.00, 0.00, 0.00, 0.00, 0.00, 0.00, 0.00, 0.00, 0.00, 0.00, 0.00, 0.00, 0.00000, 0.00000, 0.00000, 0.00000, 1, 2, 119.00, 5, 0.1925, 1, 0.2550, 2, 0.3083, 3, 0.2442], 
                [201, 202, "1 ", 2.00000E-03, 2.50000E-02, 2.00000, "BRANCH_FROM__201_TO__202___CIRCUIT_ID__1", 1200.00, 0.00, 0.00, 0.00, 0.00, 0.00, 0.00, 0.00, 0.00, 0.00, 0.00, 0.00, 0.00000, 0.00000, 0.00000, 0.00000, 1, 2, 300.00, 2, 0.1905, 3, 0.2857, 4, 0.3810, 5, 0.1429], 
                [201, 207, "C1", 1.50000E-03, 1.50000E-02, 1.25000, "BRANCH_FROM__201_TO__207___CIRCUIT_ID_C1", 1200.00, 0.00, 0.00, 0.00, 0.00, 0.00, 0.00, 0.00, 0.00, 0.00, 0.00, 0.00, 0.00000, 0.00000, 0.00000, 0.00000, 1, 2, 250.00, 1, 0.2500, 2, 0.3750, 3, 0.2500, 4, 0.1250], 
                [203, 205, "1 ", 5.00000E-03, 4.50000E-02, 0.08000, "BRANCH_FROM__203_TO__205___CIRCUIT_ID__1", 200.00, 0.00, 0.00, 0.00, 0.00, 0.00, 0.00, 0.00, 0.00, 0.00, 0.00, 0.00, 0.00000, 0.00000, 0.00000, 0.00000, 1, 1, 70.00, 5, 0.1925, 1, 0.2550, 2, 0.3083, 3, 0.2442], 
                [204, 207, "C2", 1.50000E-03, 1.50000E-02, 1.25000, "BRANCH_FROM__204_TO__207___CIRCUIT_ID_C2", 1200.00, 0.00, 0.00, 0.00, 0.00, 0.00, 0.00, 0.00, 0.00, 0.00, 0.00, 0.00, 0.00000, 0.00000, 0.00000, 0.00000, 1, 2, 300.00, 2, 0.2000, 3, 0.3000, 4, 0.4000, 5, 0.1000], 
                [205, 212, "1 ", -0.00000E+00, 1.00000E-02, 0.00000, "BRANCH_FROM__205_TO__212___CIRCUIT_ID__1", 1250.00, 0.00, 0.00, 0.00, 0.00, 0.00, 0.00, 0.00, 0.00, 0.00, 0.00, 0.00, 0.00000, 0.00000, 0.00000, 0.00000, 1, 1, 71.00, 1, 0.2000, 2, 0.3000, 3, 0.4000, 4, 0.1000], 
                [205, 214, "2 ", 2.00000E-03, 2.50000E-02, 2.00000, "BRANCH_FROM__205_TO__214___CIRCUIT_ID__2", 1200.00, 0.00, 0.00, 0.00, 0.00, 0.00, 0.00, 0.00, 0.00, 0.00, 0.00, 0.00, 0.00000, 0.00000, 0.00000, 0.00000, 1, 2, 100.00, 5, 0.2100, 1, 0.2782, 2, 0.3364, 3, 0.1755], 
                [205, 216, "3 ", 5.00000E-03, 4.50000E-02, 0.08000, "BRANCH_FROM__205_TO__216___CIRCUIT_ID__3", 200.00, 0.00, 0.00, 0.00, 0.00, 0.00, 0.00, 0.00, 0.00, 0.00, 0.00, 0.00, 0.00000, 0.00000, 0.00000, 0.00000, 1, 2, 81.00, 2, 0.1818, 3, 0.2727, 4, 0.3636, 5, 0.1818], 
                [205, 217, "4 ", 5.00000E-03, 4.50000E-02, 0.08000, "BRANCH_FROM__205_TO__217___CIRCUIT_ID__4", 200.00, 0.00, 0.00, 0.00, 0.00, 0.00, 0.00, 0.00, 0.00, 0.00, 0.00, 0.00, 0.00000, 0.00000, 0.00000, 0.00000, 1, 2, 80.00, 1, 0.1667, 2, 0.2500, 3, 0.3333, 4, 0.2500], 
                [205, 218, "5 ", 5.00000E-03, 4.50000E-02, 0.08000, "BRANCH_FROM__205_TO__218___CIRCUIT_ID__5", 200.00, 0.00, 0.00, 0.00, 0.00, 0.00, 0.00, 0.00, 0.00, 0.00, 0.00, 0.00, 0.00000, 0.00000, 0.00000, 0.00000, 1, 2, 59.00, 5, 0.1650, 1, 0.2186, 2, 0.2643, 3, 0.3521], 
                [213, 214, "1 ", -0.00000E+00, 1.00000E-02, 0.00000, "BRANCH_FROM__213_TO__214___CIRCUIT_ID__1", 1250.00, 0.00, 0.00, 1250.40, 0.00, 0.00, 1250.70, 0.00, 0.00, 1250.10, 0.00, 0.00, 0.00000, 0.00000, 0.00000, 0.00000, 1, 2, 0.50, 2, 0.1429, 3, 0.2143, 4, 0.2857, 5, 0.3571], 
                [3001, 3003, "1 ", -0.00000E+00, 8.00000E-03, 0.00000, "BRANCH_FROM_3001_TO_3003___CIRCUIT_ID__1", 0.00, 0.00, 0.00, 0.00, 0.00, 0.00, 0.00, 0.00, 0.00, 0.00, 0.00, 0.00, 0.00000, 0.00000, 0.00000, 0.00000, 1, 2, 70.00, 1, 0.1639, 2, 0.2459, 3, 0.3279, 4, 0.2623], 
                [3002, 3004, "1 ", 6.00000E-03, 5.40000E-02, 0.09000, "BRANCH_FROM_3002_TO_3004___CIRCUIT_ID__1", 0.00, 0.00, 0.00, 0.00, 0.00, 0.00, 0.00, 0.00, 0.00, 0.00, 0.00, 0.00, 0.00000, 0.00000, 0.00000, 0.00000, 1, 2, 200.00, 5, 0.1925, 1, 0.2550, 2, 0.3083, 3, 0.2442], 
                [3003, 3005, "1 ", 6.00000E-03, 5.40000E-02, 0.09000, "BRANCH_FROM_3003_TO_3005___CIRCUIT_ID__1", 0.00, 0.00, 0.00, 0.00, 0.00, 0.00, 0.00, 0.00, 0.00, 0.00, 0.00, 0.00, 0.00000, 0.00000, 0.00000, 0.00000, 1, 2, 90.00, 2, 0.2000, 3, 0.3000, 4, 0.4000, 5, 0.1000], 
                [3003, 3005, "2 ", 6.00000E-03, 5.40000E-02, 0.09000, "BRANCH_FROM_3003_TO_3005___CIRCUIT_ID__2", 0.00, 0.00, 0.00, 0.00, 0.00, 0.00, 0.00, 0.00, 0.00, 0.00, 0.00, 0.00, 0.00000, 0.00000, 0.00000, 0.00000, 1, 2, 90.00, 1, 0.1333, 2, 0.2000, 3, 0.2667, 4, 0.4000], 
                [3005, 3006, "1 ", 3.50000E-03, 3.00000E-02, 0.07000, "BRANCH_FROM_3005_TO_3006___CIRCUIT_ID__1", 0.00, 0.00, 0.00, 0.00, 0.00, 0.00, 0.00, 0.00, 0.00, 0.00, 0.00, 0.00, 0.00000, 0.00000, 0.00000, 0.00000, 1, 2, 70.00, 5, 0.1650, 1, 0.2186, 2, 0.2643, 3, 0.3521], 
                [3005, 3007, "1 ", 3.00000E-03, 2.50000E-02, 0.06000, "BRANCH_FROM_3005_TO_3007___CIRCUIT_ID__1", 0.00, 0.00, 0.00, 0.00, 0.00, 0.00, 0.00, 0.00, 0.00, 0.00, 0.00, 0.00, 0.00000, 0.00000, 0.00000, 0.00000, 1, 2, 80.00, 2, 0.1527, 3, 0.2290, 4, 0.3053, 5, 0.3130], 
                [3005, 3008, "1 ", 6.00000E-03, 5.00000E-02, 0.12000, "BRANCH_FROM_3005_TO_3008___CIRCUIT_ID__1", 0.00, 0.00, 0.00, 0.00, 0.00, 0.00, 0.00, 0.00, 0.00, 0.00, 0.00, 0.00, 0.00000, 0.00000, 0.00000, 0.00000, 0, 2, 60.00, 1, 0.1802, 2, 0.2703, 3, 0.3604, 4, 0.1892], 
                [3007, 3008, "1 ", 3.00000E-03, 2.50000E-02, 0.06000, "BRANCH_FROM_3007_TO_3008___CIRCUIT_ID__1", 0.00, 0.00, 0.00, 0.00, 0.00, 0.00, 0.00, 0.00, 0.00, 0.00, 0.00, 0.00, 0.00000, 0.00000, 0.00000, 0.00000, 1, 2, 60.00, 5, 0.1858, 1, 0.2462, 2, 0.4023, 3, 0.1657], 
                [3008, 3009, "1 ", 3.00000E-03, 2.50000E-02, 0.06000, "BRANCH_FROM_3008_TO_3009___CIRCUIT_ID__1", 25.00, 22.00, 18.00, 0.00, 0.00, 0.00, 0.00, 0.00, 0.00, 0.00, 0.00, 0.00, 0.00000, 0.00000, 0.00000, 0.00000, 1, 2, 60.00, 1, 0.1797, 2, 0.2695, 3, 0.3594, 4, 0.1914]
            ]
        }, 
        "sysswd":{
            "fields":["ibus", "jbus", "ckt", "xpu", "rate1", "rate2", "rate3", "rate4", "rate5", "rate6", "rate7", "rate8", "rate9", "rate10", "rate11", "rate12", "stat", "nstat", "met", "stype", "name"], 
            "data":[
                [151, 201, "*1", 1.00000E-04, 1206.00, 1106.00, 1006.00, 0.00, 0.00, 0.00, 0.00, 0.00, 0.00, 0.00, 0.00, 0.00, 1, 1, 2, 3, "                                        "], 
                [153, 3006, "@1", 1.00000E-04, 0.00, 0.00, 0.00, 0.00, 0.00, 0.00, 0.00, 0.00, 0.00, 0.00, 0.00, 0.00, 1, 1, 2, 2, "                                        "]
            ]
        }, 
        "transformer":{
            "fields":["ibus", "jbus", "kbus", "ckt", "cw", "cz", "cm", "mag1", "mag2", "nmet", "name", "stat", "o1", "f1", "o2", "f2", "o3", "f3", "o4", "f4", "vecgrp", "zcod", "r1_2", "x1_2", "sbase1_2", "r2_3", "x2_3", "sbase2_3", "r3_1", "x3_1", "sbase3_1", "vmstar", "anstar", "windv1", "nomv1", "ang1", "wdg1rate1", "wdg1rate2", "wdg1rate3", "wdg1rate4", "wdg1rate5", "wdg1rate6", "wdg1rate7", "wdg1rate8", "wdg1rate9", "wdg1rate10", "wdg1rate11", "wdg1rate12", "cod1", "cont1", "node1", "rma1", "rmi1", "vma1", "vmi1", "ntp1", "tab1", "cr1", "cx1", "cnxa1", "windv2", "nomv2", "ang2", "wdg2rate1", "wdg2rate2", "wdg2rate3", "wdg2rate4", "wdg2rate5", "wdg2rate6", "wdg2rate7", "wdg2rate8", "wdg2rate9", "wdg2rate10", "wdg2rate11", "wdg2rate12", "cod2", "cont2", "node2", "rma2", "rmi2", "vma2", "vmi2", "ntp2", "tab2", "cr2", "cx2", "cnxa2", "windv3", "nomv3", "ang3", "wdg3rate1", "wdg3rate2", "wdg3rate3", "wdg3rate4", "wdg3rate5", "wdg3rate6", "wdg3rate7", "wdg3rate8", "wdg3rate9", "wdg3rate10", "wdg3rate11", "wdg3rate12", "cod3", "cont3", "node3", "rma3", "rmi3", "vma3", "vmi3", "ntp3", "tab3", "cr3", "cx3", "cnxa3"], 
            "data":[
                [101, 151, 0, "T1", 2, 2, 1, 1.71470E-01, -1.02880E-01, 2, "EL DORADO NUCLEAR UNIT A GSU TRANSFORMER", 1, 1, 0.3200, 2, 0.3900, 3, 0.1400, 4, 0.1500, "Dyn1        ", null, 1.10000E-3, 9.10000E-2, 1200.00, null, null, null, null, null, null, null, null, 21.6000, 21.600, 0.000, 1200.00, 1100.00, 1000.00, 0.00, 0.00, 0.00, 0.00, 0.00, 0.00, 0.00, 0.00, 0.00, 1, 101, 0, 22.6800, 20.5200, 1.05000, 0.95000, 25, 0, 0.00021, 0.00051, 0.000, 500.000, 500.00, null, null, null, null, null, null, null, null, null, null, null, null, null, null, null, null, null, null, null, null, null, null, null, null, null, null, null, null, null, null, null, null, null, null, null, null, null, null, null, null, null, null, null, null, null, null, null, null, null, null, null, null], 
                [102, 151, 0, "T2", 2, 1, 2, 4.53750E+05, 2.60000E-03, 2, "EL DORADO NUCLEAR UNIT B GSU TRANSFORMER", 1, 1, 0.2100, 2, 0.2500, 3, 0.2200, 4, 0.3200, "Dyn1        ", null, 1.20000E-4, 7.60000E-3, 1210.00, null, null, null, null, null, null, null, null, 21.6000, 21.600, 0.000, 1210.00, 1125.00, 1025.00, 0.00, 0.00, 0.00, 0.00, 0.00, 0.00, 0.00, 0.00, 0.00, 1, 102, 0, 22.5720, 20.6280, 1.04500, 0.95500, 27, 0, 0.00022, 0.00052, 0.000, 500.000, 500.00, null, null, null, null, null, null, null, null, null, null, null, null, null, null, null, null, null, null, null, null, null, null, null, null, null, null, null, null, null, null, null, null, null, null, null, null, null, null, null, null, null, null, null, null, null, null, null, null, null, null, null, null], 
                [152, 153, 0, "T3", 2, 1, 1, 2.10000E-04, -1.20000E-04, 2, "MID LTC                                 ", 1, 1, 0.3500, 2, 0.2200, 3, 0.2500, 4, 0.1800, "YNyn0       ", null, 1.70000E-4, 7.75000E-3, 800.00, null, null, null, null, null, null, null, null, 475.000, 500.000, 0.000, 800.00, 750.00, 700.00, 0.00, 0.00, 0.00, 0.00, 0.00, 0.00, 0.00, 0.00, 0.00, 1, 154, 0, 525.000, 475.000, 1.00000, 0.98000, 10, 0, 0.00023, 0.00053, 0.000, 230.000, 230.00, null, null, null, null, null, null, null, null, null, null, null, null, null, null, null, null, null, null, null, null, null, null, null, null, null, null, null, null, null, null, null, null, null, null, null, null, null, null, null, null, null, null, null, null, null, null, null, null, null, null, null, null], 
                [152, 3021, 0, "T4", 1, 2, 2, 5.62500E+05, 2.80000E-03, 2, "WDUM DC                                 ", 1, 1, 0.3900, 2, 0.3200, 3, 0.1500, 4, 0.1400, "YNyn0       ", null, 1.30000E-3, 6.30000E-2, 1500.00, null, null, null, null, null, null, null, null, 1.10000, 500.000, 0.000, 1500.00, 1400.00, 1350.00, 0.00, 0.00, 0.00, 0.00, 0.00, 0.00, 0.00, 0.00, 0.00, 4, 0, 0, 1.10000, 0.90000, 1.10000, 0.90000, 33, 2, 0.00000, 0.00000, 0.000, 1.00000, 18.00, null, null, null, null, null, null, null, null, null, null, null, null, null, null, null, null, null, null, null, null, null, null, null, null, null, null, null, null, null, null, null, null, null, null, null, null, null, null, null, null, null, null, null, null, null, null, null, null, null, null, null, null], 
                [152, 3022, 0, "T5", 1, 2, 1, 4.00000E-04, -2.10000E-04, 2, "EDUM DC                                 ", 1, 1, 0.2200, 2, 0.2500, 3, 0.2100, 4, 0.3200, "YNyn0       ", null, 1.70000E-3, 7.40000E-2, 1510.00, null, null, null, null, null, null, null, null, 1.10000, 500.000, 0.000, 1510.00, 1410.00, 1393.00, 0.00, 0.00, 0.00, 0.00, 0.00, 0.00, 0.00, 0.00, 0.00, 4, 0, 0, 1.10000, 0.90000, 1.10000, 0.90000, 33, 0, 0.00000, 0.00000, 0.000, 1.00000, 18.00, null, null, null, null, null, null, null, null, null, null, null, null, null, null, null, null, null, null, null, null, null, null, null, null, null, null, null, null, null, null, null, null, null, null, null, null, null, null, null, null, null, null, null, null, null, null, null, null, null, null, null, null], 
                [154, 9154, 0, "W1", 1, 1, 1, 0.00000E+00, 0.00000E+00, 2, "WTG1XMER                                ", 1, 1, 1.0000, 0, 1.0000, 0, 1.0000, 0, 1.0000, "YNd1        ", null, -0.00000E+0, 5.83330E-1, 12.00, null, null, null, null, null, null, null, null, 1.00000, 0.000, 0.000, 12.00, 0.00, 0.00, 0.00, 0.00, 0.00, 0.00, 0.00, 0.00, 0.00, 0.00, 0.00, 0, 0, 0, 1.10000, 0.90000, 1.10000, 0.90000, 33, 0, 0.00000, 0.00000, 0.000, 1.00000, 0.00, null, null, null, null, null, null, null, null, null, null, null, null, null, null, null, null, null, null, null, null, null, null, null, null, null, null, null, null, null, null, null, null, null, null, null, null, null, null, null, null, null, null, null, null, null, null, null, null, null, null, null, null], 