0,     35           / Capability curve data    PSS(R)E-35.0    TUE, SEP 24 2019  11:01
@!   I,'ID', PGEN 1, QMAX 1, QMIN 1, PGEN 2, QMAX 2, QMIN 2, PGEN 3, QMAX 3, QMIN 3, PGEN 4, QMAX 4, QMIN 4
   101 '1 ',    0.0,  800.0, -100.0,  500.0,  650.0, -100.0,  900.0,    0.0,    0.0
   102 '1 ',    0.0,  800.0, -100.0,  500.0,  650.0, -100.0,  900.0,    0.0,    0.0
   206 '1 ',  100.0, 1500.0,    0.0,  600.0, 1200.0,    0.0, 1000.0,    0.0,    0.0
   211 '1 ',    0.0,  800.0, -100.0,  500.0,  750.0, -100.0,  950.0,    0.0,    0.0
  3011 '1 ',  100.0,  200.0, -100.0, 1000.0,  600.0, -100.0
  3018 '1 ',    0.0,   80.0,    0.0,  130.0,   80.0,    0.0
 0
